/*--------------------------------*- C++ -*----------------------------------*\
|       o          |                                                          |
|    o     o       | HelyxOS                                                  |
|   o   O   o      | Version: v1.0.3                                           |
|    o     o       | Web:     http://www.engys.com                            |
|       o          |                                                          |
\*---------------------------------------------------------------------------*/
FoamFile
{
    version 2.0;
    format ascii;
    class volScalarField;
    location 0;
    object k;
}

    boundaryField
    {
        ffminx
        {
            type turbulentIntensityKineticEnergyInlet;
            value uniform 0.01;
            intensity 0.01;
        }

        ffmaxx
        {
            type zeroGradient;
        }

        ffminy
        {
            type kqRWallFunction;
            value uniform 0;
        }

        ffmaxy
        {
            type kqRWallFunction;
            value uniform 0;
        }

        ffminz
        {
            type kqRWallFunction;
            value uniform 0;
        }

        ffmaxz
        {
            type kqRWallFunction;
            value uniform 0;
        }

        challenger_level_solid0
        {
            type kqRWallFunction;
            value uniform 0;
        }

    }

    dimensions [ 0 2 -2 0 0 0 0 ];
    internalField uniform 0.1;