/*--------------------------------*- C++ -*----------------------------------*\
|       o          |                                                          |
|    o     o       | HelyxOS                                                  |
|   o   O   o      | Version: v1.0.3                                           |
|    o     o       | Web:     http://www.engys.com                            |
|       o          |                                                          |
\*---------------------------------------------------------------------------*/
FoamFile
{
    version 2.0;
    format ascii;
    class dictionary;
    location system;
    object snappyHexMeshDict;
}

    castellatedMesh true;
    snap true;
    addLayers true;
    geometry
    {
        challenger_level.stl
        {
            type triSurfaceMesh;
            name challenger_level;
        }

    }

    castellatedMeshControls
    {
        features
        (
        );
        refinementSurfaces
        {
            challenger_level
            {
                regions
                {
                    solid0
                    {
                        level ( 2 3 );
                    }

                }

                level ( 0 0);
            }

        }

        refinementRegions
        {
        }

        locationInMesh ( -5.0 0.0 0.0 );
        maxLocalCells 1000000;
        maxGlobalCells 2000000;
        minRefinementCells 0;
        nCellsBetweenLevels 1;
        resolveFeatureAngle 30;
        allowFreeStandingZoneFaces false;
    }

    snapControls
    {
        nSolveIter 300;
        nSmoothPatch 3;
        tolerance 1.0;
        nRelaxIter 5;
        nFeatureSnapIter 10;
        implicitFeatureSnap false;
        explicitFeatureSnap true;
        multiRegionFeatureSnap false;
    }

    addLayersControls
    {
        layers
        {
            ffminx
            {
                nSurfaceLayers 1;
            }

            ffmaxx
            {
                nSurfaceLayers 1;
            }

            ffminy
            {
                nSurfaceLayers 1;
            }

            ffmaxy
            {
                nSurfaceLayers 1;
            }

            ffminz
            {
                nSurfaceLayers 1;
            }

            ffmaxz
            {
                nSurfaceLayers 1;
            }

            challenger_level_solid0
            {
                nSurfaceLayers 3;
            }

        }

        relativeSizes true;
        expansionRatio 0.101;
        finalLayerThickness 0.3;
        minThickness 0.2;
        nGrow 0;
        featureAngle 60;
        slipFeatureAngle 30;
        nRelaxIter 3;
        nSmoothSurfaceNormals 1;
        nSmoothNormals 3;
        nSmoothThickness 10;
        maxFaceThicknessRatio 0.5;
        maxThicknessToMedialRatio 0.3;
        minMedianAxisAngle 90;
        nBufferCellsNoExtrude 0;
        nLayerIter 50;
        nRelaxedIter 20;
    }

    meshQualityControls
    {
        maxNonOrtho 65;
        maxBoundarySkewness 20;
        maxInternalSkewness 4;
        maxConcave 80;
        minFlatness 0.5;
        minVol 1.00E-13;
        minTetQuality -1e30;
        minArea -1;
        minTwist 0.02;
        minDeterminant 0.001;
        minFaceWeight 0.02;
        minVolRatio 0.01;
        minTriangleTwist -1;
        nSmoothScale 4;
        errorReduction 0.75;
    }

    debug 0;
    mergeTolerance 1E-6;